Circuit: * C:\Users\electgpl\Downloads\Clase A\Amplificador_Clase_A.asc

Direct Newton iteration for .op point succeeded.

Date: Tue Nov 06 20:21:56 2018
Total elapsed time: 0.129 seconds.

tnom = 27
temp = 27
method = trap
totiter = 26
traniter = 0
tranpoints = 0
accept = 0
rejected = 0
matrix size = 27
fillins = 18
solver = Normal
Matrix Compiler1:     160 opcodes
Matrix Compiler2: 2.60 KB object code size
